%NProcShared=8
%mem=16gb
%chk=Ag100
#p b3lyp gen SCF=(xqc,Tight,intrep,NoVarAcc,Maxcycle=512) GFInput
     IOp(6/7=3) symm=loose  int=(grid=ultrafine) scrf=(solvent=water) pop=(mk,nbo)

test

0 1
Ag      -1    -3.98149      0.97654     -4.15417
Ag      -1    -5.99463     -1.09967     -4.12691
Ag      -1    -5.99227      0.94911     -2.07568
Ag      -1    -3.92393      0.97443     -0.06458
Ag      -1    -5.93707     -1.10177     -0.03731
Ag      -1    -3.92615     -1.07435     -2.10580
Ag      -1    -5.93485      0.94701      2.00391
Ag      -1    -3.86637      0.97233      4.02502
Ag      -1    -5.87951     -1.10388      4.05228
Ag      -1    -3.86873     -1.07645      1.97379
Ag      -1     0.10777      1.02941     -4.21170
Ag      -1    -1.90538     -1.04679     -4.18443
Ag      -1    -1.90301      1.00198     -2.13321
Ag      -1     0.16531      1.02729     -0.12209
Ag      -1    -1.84782     -1.04890     -0.09484
Ag      -1     0.16310     -1.02147     -2.16333
Ag      -1    -1.84559      0.99989      1.94639
Ag      -1     0.22291      1.02522      3.96751
Ag      -1    -1.79026     -1.05100      3.99476
Ag      -1     0.22052     -1.02358      1.91628
Ag      -1     4.19702      1.08229     -4.26923
Ag      -1     2.17388     -0.99405     -4.24182
Ag      -1     2.17623      1.05474     -2.19058
Ag      -1     4.25459      1.08019     -0.17963
Ag      -1     2.23149     -0.99614     -0.15228
Ag      -1     4.25235     -0.96858     -2.22086
Ag      -1     2.23365      1.05262      1.88889
Ag      -1     4.31215      1.07807      3.90997
Ag      -1     2.28899     -0.99827      3.93736
Ag      -1     4.30973     -0.97066      1.85885
Ag      -1     6.26550      1.10761     -2.24812
Ag      -1     6.32068     -0.94329     -0.20976
Ag      -1     6.32291      1.10551      1.83146
Ag      -1     6.37826     -0.94539      3.87983

1-34 0
Choose Basis Set
****

