%NProcShared=8
%mem=16gb
%chk=Ag110
#p b3lyp gen SCF=(xqc,Tight,intrep,NoVarAcc,Maxcycle=512) GFInput
     IOp(6/7=3) symm=loose  int=(grid=ultrafine) scrf=(solvent=water) pop=(mk,nbo)

test

0 1
Ag      -1    -5.87110     -0.83111     -4.53996
Ag      -1    -5.88027     -0.84419     -1.65000
Ag      -1    -3.81264      0.59363     -3.07696
Ag      -1    -5.84489      2.05874     -4.52680
Ag      -1    -5.85406      2.04566     -1.63685
Ag      -1    -3.83886     -2.29622     -3.09012
Ag      -1    -1.78127     -0.86827     -4.52715
Ag      -1    -1.79045     -0.88135     -1.63717
Ag      -1     0.26717      0.55655     -3.06417
Ag      -1    -1.75507      2.02158     -4.51399
Ag      -1    -1.76423      2.00850     -1.62404
Ag      -1     0.24095     -2.33330     -3.07734
Ag      -1     2.30850     -0.90542     -4.51438
Ag      -1     2.29934     -0.91852     -1.62438
Ag      -1     4.35698      0.51938     -3.05136
Ag      -1     2.33473      1.98441     -4.50120
Ag      -1     2.32556      1.97134     -1.61123
Ag      -1     4.33075     -2.37048     -3.06453
Ag      -1     6.37916     -0.95559     -1.61160
Ag      -1     6.40538      1.93427     -1.59845
Ag      -1    -3.84804     -2.30930     -0.20016
Ag      -1    -5.88944     -0.85726      1.23995
Ag      -1    -3.82180      0.58055     -0.18700
Ag      -1    -5.89861     -0.87033      4.12991
Ag      -1    -3.83098      0.56748      2.70296
Ag      -1    -5.86323      2.03259      1.25310
Ag      -1    -5.87240      2.01952      4.14306
Ag      -1    -3.85720     -2.32237      2.68980
Ag      -1     0.23177     -2.34637     -0.18737
Ag      -1    -1.79963     -0.89442      1.25276
Ag      -1     0.25800      0.54349     -0.17422
Ag      -1    -1.80880     -0.90749      4.14272
Ag      -1     0.24884      0.53040      2.71570
Ag      -1    -1.77345      1.99543      1.26593
Ag      -1    -1.78259      1.98236      4.15587
Ag      -1     0.22260     -2.35945      2.70258
Ag      -1     4.32159     -2.38353     -0.17458
Ag      -1     2.29018     -0.93158      1.26557
Ag      -1     4.34781      0.50632     -0.16142
Ag      -1     2.28101     -0.94466      4.15553
Ag      -1     4.33864      0.49324      2.72854
Ag      -1     2.31640      1.95827      1.27873
Ag      -1     2.30722      1.94519      4.16869
Ag      -1     4.31242     -2.39661      2.71538
Ag      -1     6.36999     -0.96866      1.27835
Ag      -1     6.36082     -0.98173      4.16831
Ag      -1     6.39621      1.92119      1.29151
Ag      -1     6.38704      1.90812      4.18146

1-48 0
Choose Basis Set
****

