%NProcShared=8
%mem=16gb
%chk=Au
#p b3lyp gen SCF=(xqc,Tight,intrep,NoVarAcc,Maxcycle=512) GFInput
     IOp(6/7=3) symm=loose  int=(grid=ultrafine) scrf=(solvent=water) pop=(mk,nbo)

test

0 1
Au      -1     8.16412      1.09518     -3.56045
Au      -1     6.12990      1.06812     -1.51586
Au      -1     6.09175     -0.91022     -3.61341
Au      -1     8.13700     -1.00223     -1.58176
Au      -1     4.08565      1.16011     -3.54751
Au      -1     2.05242      1.13305     -1.50293
Au      -1     2.01429     -0.84530     -3.60048
Au      -1     4.05854     -0.93729     -1.56882
Au      -1     0.00820      1.22504     -3.53457
Au      -1    -2.02519      1.19801     -1.48992
Au      -1    -2.06315     -0.78040     -3.58754
Au      -1    -0.01892     -0.87239     -1.55589
Au      -1    -4.06923      1.28991     -3.52168
Au      -1    -6.10247      1.26288     -1.47706
Au      -1    -6.14064     -0.71547     -3.57461
Au      -1    -4.09645     -0.80745     -1.54289
Au      -1    -8.14673      1.35486     -3.50870
Au      -1    -8.17385     -0.74254     -1.53002
Au      -1     8.17515      0.97608      0.51680
Au      -1     6.14094      0.94903      2.56139
Au      -1     6.10279     -1.02931      0.46383
Au      -1     8.14804     -1.12132      2.49548
Au      -1     4.09669      1.04102      0.52973
Au      -1     2.06350      1.01393      2.57431
Au      -1     2.02532     -0.96442      0.47675
Au      -1     4.06958     -1.05640      2.50842
Au      -1     0.01925      1.10592      0.54279
Au      -1    -2.01400      1.07887      2.58725
Au      -1    -2.05197     -0.89954      0.48958
Au      -1    -0.00790     -0.99145      2.52138
Au      -1    -4.05824      1.17085      0.55557
Au      -1    -6.09144      1.14379      2.60021
Au      -1    -6.12960     -0.83454      0.50265
Au      -1    -4.08537     -0.92655      2.53427
Au      -1    -8.13570      1.23577      0.56854
Au      -1    -8.16281     -0.86163      2.54723
Au      -1     6.11383     -1.14838      4.54008
Au      -1     2.03636     -1.08345      4.55301
Au      -1    -2.04110     -1.01854      4.56595
Au      -1    -6.11856     -0.95362      4.57888

1-40 0
Choose Basis Set
****

