%NProcShared=8
%mem=16gb
%chk=CdSe
#p b3lyp gen SCF=(xqc,Tight,intrep,NoVarAcc,Maxcycle=512) GFInput
     IOp(6/7=3) symm=loose  int=(grid=ultrafine) scrf=(solvent=water) pop=(mk,nbo)

test

0 1
Cd      -1    -2.15240     -2.65950     -4.85020
Cd      -1    -2.10100     -2.59630      2.26560
Cd      -1    -4.42230      1.05790     -4.86680
Cd      -1    -4.37060      1.12120      2.24910
Cd      -1     2.20520     -2.55450     -4.88280
Cd      -1     2.25710     -2.49140      2.23280
Cd      -1    -0.06460      1.16290     -4.89940
Cd      -1    -0.01300      1.22610      2.21650
Cd      -1     4.29300      1.26780     -4.93200
Cd      -1     4.34470      1.33110      2.18390
Cd      -1    -4.38740     -1.48700     -8.40280
Cd      -1    -4.33590     -1.42390     -1.28700
Cd      -1    -4.28420     -1.36060      5.81880
Cd      -1    -0.02980     -1.38200     -8.43540
Cd      -1     0.02190     -1.31860     -1.31960
Cd      -1     0.07350     -1.25540      5.78620
Cd      -1    -2.29960      2.33530     -8.45200
Cd      -1    -2.24800      2.39860     -1.33610
Cd      -1    -2.19640      2.46180      5.76960
Cd      -1     4.32790     -1.27700     -8.46800
Cd      -1     4.37950     -1.21370     -1.35210
Cd      -1     4.43120     -1.15060      5.75360
Cd      -1     2.05800      2.44030     -8.48460
Cd      -1     2.10970      2.50360     -1.36870
Cd      -1     2.16130      2.56680      5.73700
Se      -1    -2.13280     -2.63560     -2.18400
Se      -1    -2.08120     -2.57240      4.93160
Se      -1    -4.40290      1.08160     -2.20090
Se      -1    -4.35120      1.14490      4.91500
Se      -1     2.22460     -2.53080     -2.21690
Se      -1     2.27600     -2.46740      4.89890
Se      -1    -0.04530      1.18660     -2.23350
Se      -1     0.00640      1.24990      4.88240
Se      -1     4.31230      1.29150     -2.26600
Se      -1     4.36400      1.35480      4.84980
Se      -1    -4.36800     -1.46330     -5.73690
Se      -1    -4.31620     -1.39970      1.37880
Se      -1    -4.26470     -1.33680      8.48470
Se      -1    -0.01040     -1.35830     -5.76950
Se      -1     0.04130     -1.29480      1.34680
Se      -1     0.09290     -1.23180      8.45210
Se      -1    -2.28030      2.35900     -5.78610
Se      -1    -2.22860      2.42230      1.32980
Se      -1    -2.17700      2.48550      8.43550
Se      -1     4.34720     -1.25330     -5.80210
Se      -1     4.39890     -1.19000      1.31380
Se      -1     4.45050     -1.12680      8.41950
Se      -1     2.07730      2.46400     -5.81860
Se      -1     2.12900      2.52730      1.29720
Se      -1     2.18060      2.59050      8.40300

1-50 0
Choose Basis Set
****

