%NProcShared=24
%mem=120gb
%chk=AuFCC100-Ablate0_combined
#p b3lyp gen SCF=(xqc,Tight,intrep,NoVarAcc,Maxcycle=512) GFInput
     IOp(6/7=3) symm=loose  int=(grid=ultrafine) scrf=(solvent=water) pop=(mk,nbo) pseudo=read

test

0 1
Au  -15.316930   10.241940  -13.286600
Au  -15.300860   12.215830  -15.389600
Au  -13.278000   12.281420  -13.335640
Au  -13.261930   10.177390  -15.308440
Au  -15.284780   10.111770  -17.363400
Au  -15.268720   12.085660  -19.466391
Au  -13.245850   12.151250  -17.412430
Au  -13.229780   10.047220  -19.385229
Au  -11.239050   10.242980  -13.254480
Au  -11.223000   12.216870  -15.357480
Au   -9.200120   12.282460  -13.303520
Au   -9.184050   10.178430  -15.276310
Au  -11.206910   10.112810  -17.331270
Au  -11.190850   12.086700  -19.434271
Au   -9.167980   12.152290  -17.380320
Au   -9.151910   10.048250  -19.353109
Au   -7.160180   10.244010  -13.222350
Au   -7.144120   12.217910  -15.325350
Au   -5.121250   12.283490  -13.271390
Au   -5.105180   10.179470  -15.244190
Au   -7.128030   10.113840  -17.299150
Au   -7.111980   12.087740  -19.402149
Au   -5.089100   12.153320  -17.348190
Au   -5.073030   10.049290  -19.320990
Au   -3.082300   10.245050  -13.190230
Au   -3.066250   12.218950  -15.293230
Au   -3.050170   10.114880  -17.267031
Au   -3.034100   12.088770  -19.370029

1-28 0
LanL2DZ
****

