%NProcShared=24
%mem=120gb
%chk=AuFCC110UCD_combined
#p b3lyp gen SCF=(xqc,Tight,intrep,NoVarAcc,Maxcycle=512) GFInput
     IOp(6/7=3) symm=loose  int=(grid=ultrafine) scrf=(solvent=water) pop=(mk,nbo) pseudo=read

test

0 1
Au  -13.248320   -9.446290  -24.425980
Au  -15.250610  -10.920750  -22.968040
Au  -13.213040  -12.336010  -24.445560
Au   -9.169010   -9.396120  -24.481701
Au  -11.171300  -10.870580  -23.023760
Au   -9.133730  -12.285830  -24.501289
Au   -5.099690   -9.346070  -24.537291
Au   -7.091990  -10.820410  -23.079491
Au   -5.064420  -12.235790  -24.556870
Au   -1.020380   -9.295890  -24.593010
Au   -3.022680  -10.770360  -23.135080
Au   -0.985110  -12.185610  -24.612600
Au  -13.288030   -9.427190  -27.315639
Au  -15.290180  -10.901720  -25.847710
Au  -13.252750  -12.316910  -27.335220
Au   -9.208710   -9.377020  -27.371361
Au  -11.210870  -10.851540  -25.903431
Au   -9.173440  -12.266730  -27.390949
Au   -5.139400   -9.326970  -27.426950
Au   -7.131560  -10.801370  -25.959150
Au   -5.104130  -12.216690  -27.446541
Au   -1.060090   -9.276800  -27.482679
Au   -3.062250  -10.751320  -26.014740
Au   -1.024820  -12.166510  -27.502260
Au  -13.327600   -9.408160  -30.195311
Au  -15.329890  -10.882620  -28.737370
Au  -13.292320  -12.297870  -30.214890
Au   -9.248290   -9.357980  -30.251030
Au  -11.250580  -10.832450  -28.793091
Au   -9.213010  -12.247700  -30.270611
Au   -5.178970   -9.307930  -30.306620
Au   -7.171270  -10.782270  -28.848820
Au   -5.143700  -12.197650  -30.326200
Au   -1.099660   -9.257760  -30.362341
Au   -3.101960  -10.732220  -28.904409
Au   -1.064390  -12.147480  -30.381929

1-36 0
LanL2DZ
****

