%NProcShared=24
%mem=120gb
%chk=AuFCC111UCD_combined
#p b3lyp gen SCF=(xqc,Tight,intrep,NoVarAcc,Maxcycle=512) GFInput
     IOp(6/7=3) symm=loose  int=(grid=ultrafine) scrf=(solvent=water) pop=(mk,nbo) pseudo=read

test

0 1
Au    -2.26158  -16.03232  -20.85506
Au    -3.67414  -15.60720  -23.32669
Au    -2.21993  -13.14921  -23.73558
Au    -2.20679  -15.19531  -25.77808
Au    -3.63240  -12.72579  -26.21706
Au    -3.68719  -13.56279  -21.29404
Au    -5.14140  -16.02078  -20.88515
Au    -6.56396  -15.59562  -23.35688
Au    -5.09975  -13.13767  -23.76567
Au    -5.08661  -15.18377  -25.80817
Au    -6.52222  -12.71421  -26.24725
Au    -6.57701  -13.55121  -21.32424
Au    -8.03122  -16.00920  -20.91534
Au    -9.44378  -15.58408  -23.38697
Au    -7.98957  -13.12609  -23.79586
Au    -7.97643  -15.17219  -25.83836
Au    -9.40204  -12.70267  -26.27734
Au    -9.45683  -13.53967  -21.35432
Au   -10.91104  -15.99766  -20.94543
Au   -12.32360  -15.57254  -23.41705
Au   -10.86939  -13.11456  -23.82595
Au   -10.85625  -15.16065  -25.86845
Au   -12.28186  -12.69113  -26.30743
Au   -12.33665  -13.52814  -21.38441
Au   -13.79086  -15.98612  -20.97551
Au   -15.21342  -15.56096  -23.44724
Au   -13.74921  -13.10302  -23.85603
Au   -13.73607  -15.14911  -25.89853
Au   -15.17168  -12.67955  -26.33762
Au   -15.22646  -13.51656  -21.41460
Au    -2.19369  -17.22986  -27.81243
Au    -3.60616  -16.80644  -30.29390
Au    -2.15195  -14.34845  -30.70280
Au    -2.13890  -16.39285  -32.73544
Au    -3.56451  -13.92333  -33.17442
Au    -3.61930  -14.76034  -28.25141
Au    -5.07351  -17.21832  -27.84251
Au    -6.49598  -16.79486  -30.32410
Au    -5.03177  -14.33691  -30.73288
Au    -5.01872  -16.38131  -32.76553
Au    -6.45433  -13.91175  -33.20461
Au    -6.50912  -14.74876  -28.28160
Au    -7.96333  -17.20674  -27.87270
Au    -9.37580  -16.78332  -30.35418
Au    -7.92159  -14.32533  -30.76308
Au    -7.90854  -16.36974  -32.79572
Au    -9.33415  -13.90021  -33.23470
Au    -9.38894  -14.73722  -28.31168
Au   -10.84315  -17.19520  -27.90279
Au   -12.25562  -16.77178  -30.38427
Au   -10.80141  -14.31379  -30.79316
Au   -10.78836  -16.35820  -32.82581
Au   -12.21397  -13.88867  -33.26479
Au   -12.26876  -14.72568  -28.34177
Au   -13.72297  -17.18366  -27.93288
Au   -15.14544  -16.76020  -30.41446
Au   -13.68123  -14.30226  -30.82325
Au   -13.66818  -16.34666  -32.85589
Au   -15.10379  -13.87710  -33.29498
Au   -15.15858  -14.71410  -28.37196

1-60 0
LanL2DZ
****

